/*--------------------------------*- C++ -*----------------------------------*\
| =========                 |                                                 |
| \\      /  F ield         | OpenFOAM: The Open Source CFD Toolbox           |
|  \\    /   O peration     | Version:  v1706                                 |
|   \\  /    A nd           | Web:      www.OpenFOAM.org                      |
|    \\/     M anipulation  |                                                 |
\*---------------------------------------------------------------------------*/
FoamFile
{
    version     2.0;
    format      ascii;
    class       dictionary;
    object      parameters;
}

// * * * * * * * * * * * * * * * * * * * * * * * * * * * * * * * * * * * * * //

I       0.002;
L       0.0014; // 0.07*2cm

Prt     0.7;
Sct     0.9;

nProcs  12;

writeTime  1e-4;
endTime    3e-3;

// * * * * * * * * * * * * * * * * * * * * * * * * * * * * * * * * * * * * * //
