/*--------------------------------*- C++ -*----------------------------------*\
| =========                 |                                                 |
| \\      /  F ield         | OpenFOAM: The Open Source CFD Toolbox           |
|  \\    /   O peration     | Version:  v1706                                 |
|   \\  /    A nd           | Web:      www.OpenFOAM.org                      |
|    \\/     M anipulation  |                                                 |
\*---------------------------------------------------------------------------*/
FoamFile
{
    version     2.0;
    format      ascii;
    class       dictionary;
    location    "constant";
    object      turbulenceProperties;
}
// * * * * * * * * * * * * * * * * * * * * * * * * * * * * * * * * * * * * * //

#include "../parameters"

simulationType  RAS;

RAS
{
    RASModel        kOmegaSST;
    // RASModel        SpalartAllmaras;

    turbulence      on;

    printCoeffs     on;
    
    kOmegaSSTCoeffs
    {
        Prt             $Prt;
    }
}


// ************************************************************************* //
