/*--------------------------------*- C++ -*----------------------------------*\
| =========                 |                                                 |
| \\      /  F ield         | OpenFOAM: The Open Source CFD Toolbox           |
|  \\    /   O peration     | Version:  v1706                                 |
|   \\  /    A nd           | Web:      www.OpenFOAM.org                      |
|    \\/     M anipulation  |                                                 |
\*---------------------------------------------------------------------------*/
FoamFile
{
    version     2.0;
    format      ascii;
    class       dictionary;
    location    "system";
    object      fvSchemes;
}
// * * * * * * * * * * * * * * * * * * * * * * * * * * * * * * * * * * * * * //

fluxScheme            Kurganov;

ddtSchemes
{
    default           Euler;
}

gradSchemes
{
    default           Gauss linear;
}

divSchemes
{
    default           none;
    div(tauMC)        Gauss linear;
    div(phi,U)        Gauss limitedLinearV 1;
    
    // Species diffusion
    div(diffusiveFluxes)   Gauss linear;
    div(phi,Yi_h)     Gauss limitedLinear 1;
    
    // Turbulence modelling
    
    turbulence      bounded Gauss limitedLinear 1;
    div(phi,k)      $turbulence;
    div(phi,epsilon) $turbulence;
    div(phi,omega)  $turbulence;
    div(phi,nuTilda) $turbulence;
    
    // Needed when there are electrons in the gas mix
    div(U)            Gauss linear;
}

laplacianSchemes
{
    default           Gauss linear corrected;
}

interpolationSchemes
{
    default           linear;
    reconstruct(rho)  vanAlbada;
    reconstruct(U)    vanAlbadaV;
    reconstruct(T)    vanAlbada;
}

snGradSchemes
{
    default          corrected;
}

wallDist
{
    method meshWave;
}


// ************************************************************************* //
