/*--------------------------------*- C++ -*----------------------------------*\
| =========                 |                                                 |
| \\      /  F ield         | OpenFOAM: The Open Source CFD Toolbox           |
|  \\    /   O peration     | Version:  v1706                                 |
|   \\  /    A nd           | Web:      www.OpenFOAM.org                      |
|    \\/     M anipulation  |                                                 |
\*---------------------------------------------------------------------------*/
FoamFile
{
    version     2.0;
    format      ascii;
    class       volVectorField;
    object      U;
}
// * * * * * * * * * * * * * * * * * * * * * * * * * * * * * * * * * * * * * //

#include "include/initialConditions"

dimensions      [0 1 -1 0 0 0 0];

internalField   uniform ($velocityInlet 0 0);

boundaryField
{
    inlet
    {
        type            fixedValue;
        value           uniform ($velocityInlet 0 0);
    }
    
    outlet
    {
        type            zeroGradient;
    }
    
    walls
    {
        type            slip;
    }
    
    #include "include/boundaries"
}

// ************************************************************************* //
