/*--------------------------------*- C++ -*----------------------------------*\
| =========                 |                                                 |
| \\      /  F ield         | OpenFOAM: The Open Source CFD Toolbox           |
|  \\    /   O peration     | Version:  v1706                                 |
|   \\  /    A nd           | Web:      www.OpenFOAM.org                      |
|    \\/     M anipulation  |                                                 |
\*---------------------------------------------------------------------------*/
FoamFile
{
    version     2.0;
    format      ascii;
    class       volScalarField;
    location    "0";
    object      p;
}
// * * * * * * * * * * * * * * * * * * * * * * * * * * * * * * * * * * * * * //

#include "include/initialConditions"

dimensions      [1 -1 -2 0 0 0 0];

internalField   uniform $pStatic;

boundaryField
{
    inlet
    {
        type            totalPressure;
        p0              uniform $p0;
        gamma           1.4;
        psi             thermo:psi;
    }
    
    "outlet.*"
    {
        type            waveTransmissive;
        field           p;
        psi             thermo:psi;
        gamma           1.4;
        fieldInf        $pStatic;
        lInf            0.5;
    }
    
    "wall.*"
    {
        type            zeroGradient;
    }
    
    #include "include/boundaries"
}

// ************************************************************************* //
