/*--------------------------------*- C++ -*----------------------------------*\
| =========                 |                                                 |
| \\      /  F ield         | OpenFOAM: The Open Source CFD Toolbox           |
|  \\    /   O peration     | Version:  v1706                                 |
|   \\  /    A nd           | Web:      www.OpenFOAM.com                      |
|    \\/     M anipulation  |                                                 |
\*---------------------------------------------------------------------------*/
FoamFile
{
    version     2.0;
    format      ascii;
    class       polyBoundaryMesh;
    location    "constant/polyMesh";
    object      boundary;
}
// * * * * * * * * * * * * * * * * * * * * * * * * * * * * * * * * * * * * * //

6
(
    wallShockGenerator
    {
        type            wall;
        physicalType    wall;
        inGroups        1(wall);
        nFaces          150;
        startFace       85072;
    }
    freeStream
    {
        type            patch;
        physicalType    patch;
        nFaces          203;
        startFace       85222;
    }
    inlet
    {
        type            patch;
        physicalType    patch;
        nFaces          87;
        startFace       85425;
    }
    wallBottom
    {
        type            wall;
        physicalType    wall;
        inGroups        1(wall);
        nFaces          463;
        startFace       85512;
    }
    outlet
    {
        type            patch;
        physicalType    patch;
        nFaces          61;
        startFace       85975;
    }
    defaultFaces
    {
        type            empty;
        physicalType    empty;
        inGroups        1(empty);
        nFaces          103736;
        startFace       86036;
    }
)

// ************************************************************************* //
