/*--------------------------------*- C++ -*----------------------------------*\
| =========                 |                                                 |
| \\      /  F ield         | OpenFOAM: The Open Source CFD Toolbox           |
|  \\    /   O peration     | Version:  plus                                  |
|   \\  /    A nd           | Web:      www.OpenFOAM.com                      |
|    \\/     M anipulation  |                                                 |
\*---------------------------------------------------------------------------*/
FoamFile
{
    version     2.0;
    format      ascii;
    class       dictionary;
    location    "system";
    object      fvSolution;
}
// * * * * * * * * * * * * * * * * * * * * * * * * * * * * * * * * * * * * * //

solvers
{
    p
    {
        solver          GAMG;
        smoother        DICGaussSeidel;
        tolerance       1e-6;
        relTol          0.01;
    }

    pFinal
    {
        $p;
        tolerance       1e-6;
        relTol          0;
    }

    "(U|k|omega)"
    {
        solver          smoothSolver;
        smoother        symGaussSeidel;
        tolerance       0;
        relTol          0.1;
    }

    "(U|k|omega)Final"
    {
        $U;
        tolerance       1e-8;
        relTol          0;
    }
}

PIMPLE
{
    nOuterCorrectors         2;
    nCorrectors              2;
    nNonOrthogonalCorrectors 1;
    transonic               no;
    consistent	            no;
}

relaxationFactors
{
}


// ************************************************************************* //
