/*--------------------------------*- C++ -*----------------------------------*\
| =========                 |                                                 |
| \\      /  F ield         | OpenFOAM: The Open Source CFD Toolbox           |
|  \\    /   O peration     | Version:  v1706                                 |
|   \\  /    A nd           | Web:      www.OpenFOAM.org                      |
|    \\/     M anipulation  |                                                 |
\*---------------------------------------------------------------------------*/
FoamFile
{
    version     2.0;
    format      ascii;
    class       dictionary;
    object      parameters;
}

// * * * * * * * * * * * * * * * * * * * * * * * * * * * * * * * * * * * * * //

// Initial turbulence parameters

I  0.03;
L  0.00805; // 0.07*115mm

Prt    0.7;
Sct    0.7;


nProcs  12;

writeTime  1e-4;
endTime   15e-4;

// * * * * * * * * * * * * * * * * * * * * * * * * * * * * * * * * * * * * * //
