/*--------------------------------*- C++ -*----------------------------------*\
| =========                 |                                                 |
| \\      /  F ield         | OpenFOAM: The Open Source CFD Toolbox           |
|  \\    /   O peration     | Version:  v1706                                 |
|   \\  /    A nd           | Web:      www.OpenFOAM.org                      |
|    \\/     M anipulation  |                                                 |
\*---------------------------------------------------------------------------*/
FoamFile
{
    version     2.0;
    format      ascii;
    class       dictionary;
    location    "system";
    object      surfaces;
}
// * * * * * * * * * * * * * * * * * * * * * * * * * * * * * * * * * * * * * //

type            surfaces;
functionObjectLibs ("libsampling.so");

writeControl    writeTime;
    
interpolationScheme cell;
surfaceFormat   raw;
    
fields          (p wallHeatFlux);

surfaces
( 
   wall
   {
      type         patch;
      patches      (wall);
      interpolate  false;
   }
);
    
// * * * * * * * * * * * * * * * * * * * * * * * * * * * * * * * * * * * * * //
