/*--------------------------------*- C++ -*----------------------------------*\
| =========                 |                                                 |
| \\      /  F ield         | OpenFOAM: The Open Source CFD Toolbox           |
|  \\    /   O peration     | Version:  v1706                                 |
|   \\  /    A nd           | Website:  www.openfoam.com                      |
|    \\/     M anipulation  |                                                 |
\*---------------------------------------------------------------------------*/
FoamFile
{
    version     2.0;
    format      ascii;
    class       volScalarField;
    object      k;
}
// * * * * * * * * * * * * * * * * * * * * * * * * * * * * * * * * * * * * * //

#include "include/initialConditions"
#include "../parameters"

dimensions      [0 2 -2 0 0 0 0];

internalField   uniform 0;

boundaryField
{
    inlet
    {
        type            turbulentIntensityKineticEnergyInlet;
        intensity       $I;
        value           uniform 1;
    }
    
    "outlet.*|freestream"
    {
        type            inletOutlet;
        inletValue      $internalField;
        value           $internalField;
    }
    
    "wall.*"
    {
        type            kqRWallFunction;
        value           $internalField;
    }
    
    
    #include "include/boundaries"
}


// ************************************************************************* //
