/*--------------------------------*- C++ -*----------------------------------*\
| =========                 |                                                 |
| \\      /  F ield         | OpenFOAM: The Open Source CFD Toolbox           |
|  \\    /   O peration     | Version:  plus                                  |
|   \\  /    A nd           | Web:      www.OpenFOAM.com                      |
|    \\/     M anipulation  |                                                 |
\*---------------------------------------------------------------------------*/
FoamFile
{
    version     2.0;
    format      ascii;
    class       volScalarField;
    object      nut;
}
// * * * * * * * * * * * * * * * * * * * * * * * * * * * * * * * * * * * * * //
#include "include/initialConditions"

dimensions      [0 2 -1 0 0 0 0];

internalField   uniform $nuTilda0;

boundaryField
{
    inlet
    {
        type            calculated;
        value           uniform $nuTilda0;
    }

    "outlet|freestream"
    {
        type            zeroGradient;
    }

    wall
    {
        type            nutkWallFunction;  // SST use
        // type            nutUWallFunction;  // SA use
        value           uniform 0;
    }
    
    #include "include/boundaries"
}

// ************************************************************************* //
