/*--------------------------------*- C++ -*----------------------------------*\
| =========                 |                                                 |
| \\      /  F ield         | OpenFOAM: The Open Source CFD Toolbox           |
|  \\    /   O peration     | Version:  v1706                                 |
|   \\  /    A nd           | Website:  www.openfoam.com                      |
|    \\/     M anipulation  |                                                 |
\*---------------------------------------------------------------------------*/
FoamFile
{
    version     2.0;
    format      ascii;
    class       volScalarField;
    object      omega;
}
// * * * * * * * * * * * * * * * * * * * * * * * * * * * * * * * * * * * * * //

#include "include/initialConditions"
#include "../parameters"

dimensions      [0 0 -1 0 0 0 0];

internalField   uniform 100;

boundaryField
{
    inlet
    {
        type            turbulentMixingLengthFrequencyInlet;
        mixingLength    $L;
        value           uniform 200;
    }
    
    "outlet.*|freestream"
    {
        type            inletOutlet;
        inletValue      $internalField;
        value           $internalField;
    }
    
    "wall.*"
    {
        type            omegaWallFunction;
        value           $internalField;
    }
    
    
    #include "include/boundaries"
}


// ************************************************************************* //
