/*--------------------------------*- C++ -*----------------------------------*\
| =========                 |                                                 |
| \\      /  F ield         | OpenFOAM: The Open Source CFD Toolbox           |
|  \\    /   O peration     | Version:  v1706                                 |
|   \\  /    A nd           | Web:      www.OpenFOAM.org                      |
|    \\/     M anipulation  |                                                 |
\*---------------------------------------------------------------------------*/
FoamFile
{
    version     2.0;
    format      ascii;
    class       volScalarField;
    location    "0";
    object      Tt;
}
// * * * * * * * * * * * * * * * * * * * * * * * * * * * * * * * * * * * * * //

#include "include/initialConditions"

dimensions      [0 0 0 1 0 0 0];

internalField   uniform $T;

boundaryField
{
    inlet
    {
        type            fixedValue;
        value           uniform $T;
    }
    
    "outlet.*|freestream"
    {
    
        type            inletOutlet;
        inletValue      uniform $T;
        value           uniform $T;
    }
    
    "wall.*"
    {
        //type            zeroGradient;
        type            fixedValue;
        value           uniform 311;
    }
    
    #include "include/boundaries"
}

// ************************************************************************* //
