/*--------------------------------*- C++ -*----------------------------------*\
| =========                 |                                                 |
| \\      /  F ield         | OpenFOAM: The Open Source CFD Toolbox           |
|  \\    /   O peration     | Version:  v1706                                 |
|   \\  /    A nd           | Web:      www.OpenFOAM.org                      |
|    \\/     M anipulation  |                                                 |
\*---------------------------------------------------------------------------*/
FoamFile
{
    version     2.0;
    format      ascii;
    class       volVectorField;
    location    "0";
    object      U;
}
// * * * * * * * * * * * * * * * * * * * * * * * * * * * * * * * * * * * * * //

#include "include/initialConditions"

dimensions      [0 1 -1 0 0 0 0];

internalField   uniform ($U 0 0);

boundaryField
{
    "inlet.*"
    {
        type            fixedValue;
        value           uniform ($U 0 0);
    }
    
    "outlet.*"
    {
        type            inletOutlet;
        inletValue      uniform (0 0 0);
        value           uniform (0 0 0);
    }
    
    freestream
    {
        type            supersonicFreestream;
        pInf            $p;
        TInf            $T;
        UInf            ($U 0 0);
        gamma           1.4;
        value           uniform ($U 0 0);
        T               Tt;
    }
    
    "wall.*"
    {
        type            noSlip;
    }
    
    #include "include/boundaries"
}

// ************************************************************************* //
