/*--------------------------------*- C++ -*----------------------------------*\
| =========                 |                                                 |
| \\      /  F ield         | OpenFOAM: The Open Source CFD Toolbox           |
|  \\    /   O peration     | Version:  v1706                                 |
|   \\  /    A nd           | Web:      www.OpenFOAM.org                      |
|    \\/     M anipulation  |                                                 |
\*---------------------------------------------------------------------------*/
FoamFile
{
    version     2.0;
    format      ascii;
    class       dictionary;
    object      initialConditions;
}

// * * * * * * * * * * * * * * * * * * * * * * * * * * * * * * * * * * * * * //

Y_O2     0.232;
Y_N2     0.768;

p0      21.2e5;   // 21.2bar total pressure
pStatic 3.96e3;
T        68.34;   // Static temperature corresponding to T0 = 410K
Tw         300;
U       830.28;


// * * * * * * * * * * * * * * * * * * * * * * * * * * * * * * * * * * * * * //
