/*--------------------------------*- C++ -*----------------------------------*\
| =========                 |                                                 |
| \\      /  F ield         | OpenFOAM: The Open Source CFD Toolbox           |
|  \\    /   O peration     | Version:  v1706                                 |
|   \\  /    A nd           | Web:      www.OpenFOAM.com                      |
|    \\/     M anipulation  |                                                 |
\*---------------------------------------------------------------------------*/
FoamFile
{
    version     2.0;
    format      ascii;
    class       polyBoundaryMesh;
    location    "constant/polyMesh";
    object      boundary;
}
// * * * * * * * * * * * * * * * * * * * * * * * * * * * * * * * * * * * * * //

4
(
    inlet
    {
        type            patch;
        nFaces          1;
        startFace       599;
    }
    outlet
    {
        type            patch;
        nFaces          1;
        startFace       600;
    }
    walls
    {
        type            wall;
        inGroups        1(wall);
        nFaces          1200;
        startFace       601;
    }
    frontAndBack
    {
        type            empty;
        inGroups        1(empty);
        nFaces          1200;
        startFace       1801;
    }
)

// ************************************************************************* //
