/*--------------------------------*- C++ -*----------------------------------*\
| =========                 |                                                 |
| \\      /  F ield         | OpenFOAM: The Open Source CFD Toolbox           |
|  \\    /   O peration     | Version:  v1706                                 |
|   \\  /    A nd           | Web:      www.OpenFOAM.org                      |
|    \\/     M anipulation  |                                                 |
\*---------------------------------------------------------------------------*/

FoamFile
{
    version     2.0;
    format      ascii;
    class       dictionary;
    object      initialConditions;
}

// * * * * * * * * * * * * * * * * * * * * * * * * * * * * * * * * * * * * * //

pressure      1.01325e5;   // Atmospheric pressure
velocityInlet 1363.1;      // Mach 1.82
temperature   1389;        // 2500 Rankine

X_O2      0.9;
X_O       0;
X_H2      0.1;
X_H       0;
X_OH      0;
X_H2O     0;
  


// * * * * * * * * * * * * * * * * * * * * * * * * * * * * * * * * * * * * * //
